/*--------------------------------*- C++ -*----------------------------------*\
| =========                 |                                                 |
| \\      /  F ield         | OpenFOAM: The Open Source CFD Toolbox           |
|  \\    /   O peration     | Version:  dev                                   |
|   \\  /    A nd           | Web:      www.OpenFOAM.org                      |
|    \\/     M anipulation  |                                                 |
\*---------------------------------------------------------------------------*/
FoamFile
{
    version     2.0;
    format      ascii;
    class       dictionary;
    location    "system";
    object      fvSolution;
}
// * * * * * * * * * * * * * * * * * * * * * * * * * * * * * * * * * * * * * //

solvers
{
    "(p)"
    {
        solver          GAMG;
        tolerance       1e-5;
        relTol          0.01;
        smoother        GaussSeidel;

        cacheAgglomeration yes;
        nCellsInCoarsestLevel 20;
        agglomerator    faceAreaPair;
        mergeLevels     1;
    }

    pFinal
    {
        $p
 	tolerance        1e-6;
        relTol           0.0;
    }
    
    "(U|k|epsilon|omega)"
    {
        solver          PBiCGStab;
        smoother        GaussSeidel;
        preconditioner  DILU;
        tolerance       1e-05;
        relTol          0.1;
    }

    "(U|k|epsilon|omega)Final"
    {
        $U;
        relTol          0;
    }

}

PIMPLE
{
    nOuterCorrectors 10;
    nCorrectors     2;
    nNonOrthogonalCorrectors 0;
    turbOnFinalIterOnly true;

    residualControl
    {
        "(U|k|epsilon|omega)"
        {
            tolerance   1e-3;
            relTol      0;
        }
        p
        {
            tolerance   1e-2;
            relTol      0;
        }
    }

    pRefCell        0;
    pRefValue       0;
}


PISO
{
    nCorrectors     3;
    nNonOrthogonalCorrectors 0;
    pRefCell        0;
    pRefValue       0;
}

SIMPLE
{
    nNonOrthogonalCorrectors 0;
}

relaxationFactors
{
    C          0.5;
    U          0.8;
    p          0.5;
    k          0.8;
    epsilon    0.8;
}


// ************************************************************************* //
