/*--------------------------------*- C++ -*----------------------------------*\
| =========                 |                                                 |
| \\      /  F ield         | OpenFOAM: The Open Source CFD Toolbox           |
|  \\    /   O peration     | Version:  2412                                  |
|   \\  /    A nd           | Website:  www.openfoam.com                      |
|    \\/     M anipulation  |                                                 |
\*---------------------------------------------------------------------------*/
FoamFile
{
    version     2.0;
    format      ascii;
    arch        "LSB;label=32;scalar=64";
    class       volVectorField;
    location    "0";
    object      U;
}
// * * * * * * * * * * * * * * * * * * * * * * * * * * * * * * * * * * * * * //

dimensions      [0 1 -1 0 0 0 0];

internalField   uniform (0.46 0 0);

boundaryField
{
    top
    {
        type            slip;
    }
    bottom
    {
        type            zeroGradient;
    }
    inlet
    {
        type            timeVaryingMappedFixedValue;
        fieldTable      U;
        mapMethod       nearest;
        offset          constant (0 0 0);
        value           uniform (0 0 0);
    }
    outlet
    {
        type            zeroGradient;
    }
    frontAndBack
    {
        type            slip;
    }
    pier
    {
        type            fixedValue;
        value           uniform (0 0 0);
    }
}


// ************************************************************************* //
